Title: SCALE-Sim TPU: Validating and Extending SCALE-Sim for TPUs

URL Source: https://arxiv.org/pdf/2603.22535v1

Published Time: Wed, 25 Mar 2026 00:19:39 GMT

Number of Pages: 7

Markdown Content:
# SCALE-Sim TPU: Validating and Extending SCALE-Sim for TPUs 

# Jingtian Dang 

Georgia Institute of Technology Atlanta, Georgia, USA dangjingtian@gatech.edu 

# Ritik Raj 

Georgia Institute of Technology Atlanta, Georgia, USA 

# Changhai Man 

Georgia Institute of Technology Atlanta, Georgia, USA 

# Jianming Tong 

Georgia Institute of Technology Atlanta, Georgia, USA 

# Tushar Krishna 

Georgia Institute of Technology Atlanta, Georgia, USA 

## Abstract 

Cycle-accurate simulators are widely used to study systolic accel-erators, yet their accuracy and usability are often limited by weak validation against real hardware and poor integration with mod-ern ML compiler stacks. This paper presents SCALE-Sim TPU , a validated and extended version of SCALE-Sim v3 for TPU-style accelerators. Specifically, we make three contributions: (1) We val-idate SCALE-Sim’s systolic GEMM model against measurements on Google TPU v4 and show that simulated cycle counts exhibit a strong linear correlation with hardware latency, enabling a simple cycle-to-latency mapping. (2) We introduce lightweight learned latency models for non-systolic elementwise operations, achieving median relative errors below 3% using only tensor size and shape, substantially improving end-to-end latency estimation. (3) We in-tegrate a StableHLO-based frontend that allows workloads from modern ML frameworks such as JAX and PyTorch to be simulated directly via a unified compiler IR. Together, these contributions improve the fidelity, coverage, and practicality of cycle-accurate simulation for whole-model performance analysis on TPUs. 

## CCS Concepts 

• Computer systems organization → Systolic architectures ;

Neural networks ; • Software and its engineering → Compilers. 

## Keywords 

SCALE-Sim, Tensor Processing Unit, systolic arrays, StableHLO, performance modeling 

## 1 Introduction 

Systolic-array accelerators such as Google’s Tensor Processing Units (TPUs) are a dominant substrate for modern machine learning workloads. Cycle-accurate simulators are therefore widely used to analyze performance bottlenecks, guide architectural exploration, and support benchmarking. However, in practice, two key limi-tations reduce the effectiveness of existing systolic-array simula-tors. First, their predictive validity is often unclear due to limited validation against real, production-scale hardware. Second, most simulators focus primarily on systolic kernels (e.g., GEMM and convolution), while ignoring or oversimplifying non-systolic oper-ations, and require bespoke operator descriptions that are poorly aligned with modern ML compilation pipelines. This paper addresses these gaps by validating and extending SCALE-Sim v3[9], a modular cycle-accurate simulator for systolic accelerators. Our goal is to enable accurate, whole-model latency StableHLO Parser   

> StableHLO IR SCALE-Sim Topology File OpInfo Data Structure
> Analytic Latency Models SCALE-Sim V3 GEMM CONV Elementwise Learned Latency Models
> TPU-grounded Latency Results JAX Program Pytorch Model
> User Interface

SCALE-Sim TPU Tool 

> Contributions of this paper
> Legacy Components

Figure 1: Overview of the SCALE-Sim TPU Workflow and Contributions. ML programs written in JAX or PyTorch are compiled into StableHLO, which serves as a unified input interface. The StableHLO parser extracts operator metadata and routes systolic-array operations (e.g., GEMM and con-volution) to SCALE-Sim v3, while non-systolic operations are handled by lightweight analytic or learned latency mod-els. Circles denote data artifacts or files, and rectangles de-note processing components. The green region represents the complete SCALE-Sim TPU toolchain. The blue dashed region highlights legacy components inherited from prior work (SCALE-Sim v3), while the orange dashed region high-lights the components introduced or extended in this paper. 

estimation for TPU-style accelerators directly from modern com-piler IR, while maintaining lightweight modeling complexity. Our contributions are: 

• TPU-grounded validation of SCALE-Sim’s systolic array model. We perform a TPU-grounded validation of SCALE-Sim’s systolic-array performance model by comparing simulated cycle counts against measured kernel latencies on Google TPU v4 across a wide range of GEMM shapes. We show that a simple analytical cycle 

> 1
> arXiv:2603.22535v1 [cs.AR] 23 Mar 2026

model, when combined with a linear cycle-to-time mapping, can effectively translate SCALE-Sim cycle counts into TPU execution time, while also highlighting regimes where this approximation becomes less accurate. 

• Learnable latency modeling for elementwise operations. 

To better account for the contribution of non-systolic operators to end-to-end model latency, we extend SCALE-Sim with light-weight, learnable latency models for elementwise operations. Using histogram-based gradient boosting regression, we model element-wise operator latency as a function of tensor size and shape. The re-sulting models achieve high predictive accuracy on TPU hardware, with median relative errors below 3% for representative operators such as addition and ReLU, substantially improving whole-model latency estimation beyond systolic kernels alone. 

• StableHLO-based, framework-agnostic user interface for accelerator simulation. We introduce a StableHLO-based fron-tend that enables framework-agnostic simulation from modern ML stacks, including JAX and PyTorch. The frontend parses StableHLO to extract operator metadata and identifies operations supported by SCALE-Sim TPU, eliminating ad-hoc configuration formats and decoupling the simulator from framework-specific IRs. Supported systolic operations are routed to validated analytical models, while supported non-systolic operations are handled by learned latency models, enabling end-to-end latency estimation for the covered subset of compiler-emitted programs. Together, these contributions improve the fidelity , coverage ,and usability of cycle-accurate systolic-array simulation. SCALE-Sim TPU provides a practical toolchain for evaluating real ML workloads on TPUs, grounded in hardware measurements and compatible with modern compiler infrastructures. Figure 1 summarizes the end-to-end workflow and highlights the components introduced in this paper. 

## 2 Background and Motivation 2.1 SCALE-Sim V3 

SCALE-Sim v3[ 9] is a modular, cycle-accurate simulator designed for performance analysis of systolic-array–based accelerators. It extends earlier versions of SCALE-Sim by supporting multi-core architectures with spatio-temporal partitioning, sparse matrix mul-tiplication, detailed DRAM modeling via Ramulator, on-chip data layout effects, and energy estimation through Accelergy. These en-hancements allow SCALE-Sim v3 to capture interactions between compute, memory, and data movement more faithfully, enabling detailed exploration of architectural trade-offs across latency, band-width, and energy for modern AI workloads. 

## 2.2 TPU v4 

TPU v4[ 3] is Google’s fourth-generation Tensor Processing Unit, designed to accelerate large-scale machine learning workloads us-ing systolic-array–based matrix multiplication. It features signifi-cantly increased compute density, higher-bandwidth on-chip and off-chip memory, and improved interconnects compared to earlier TPU generations, enabling efficient execution of large GEMM- and convolution-dominated workloads. TPU v4 serves as a production-scale accelerator platform and provides a representative target for validating cycle-level performance models against real hardware behavior. 

## 2.3 Motivation 

Why validate against real hardware? While simulator-based stud-ies are common, many systolic-array simulators are rarely validated against production accelerators. To ground SCALE-Sim’s model-ing assumptions, we use state-of-the-art systolic-array accelerator Google TPU as a representative platform and analyze when SCALE-Sim correctly reflects performance behavior. 

Why model elementwise operations? End-to-end ML model la-tency is not determined solely by systolic-array kernels such as GEMM and convolution. Modern ML workloads contain a large number of non-GEMM operators, including elementwise additions, activations, normalization, and other memory-bound operations, whose cumulative latency can be significant. Recent workload char-acterization shows that non-GEMM operations can account for 

11.3%–73.6% of total inference time across models and platforms, and still contribute 15%–48% of end-to-end latency even after oper-ator fusion [ 4 ]. As GEMM and convolution are increasingly acceler-ated by specialized hardware, these non-systolic operators become a dominant performance bottleneck. Prior work on inference la-tency prediction therefore emphasizes the need for operation-level modeling, including elementwise operators, to achieve accurate end-to-end latency estimation across diverse hardware and soft-ware stacks [ 6 ]. Consequently, to enable faithful whole-model la-tency estimation, it is necessary to model non-systolic elementwise operations alongside GEMM and convolution. 

Why StableHLO?. Modern ML workloads are authored in frame-works such as JAX and PyTorch and increasingly flow through com-piler IRs. StableHLO provides a convenient, unified representation for extracting operator shapes and attributes, avoiding per-operator hand-written configuration formats and simplifying integration [7]. 

## 3 Related Works 

Prior work on accelerator performance modeling has largely fo-cused on either cycle-level simulation or analytical modeling of systolic architectures. TimeLoop [ 8 ] offers a flexible analytical ap-proach for mapping DNN layers to accelerator architectures; how-ever, it relies on custom configuration files and validates results analytically (or against lower-level models) rather than through direct measurements on production hardware. COCOSSim [1] performs cycle-accurate simulation of both sys-tolic arrays and vector units, and reports comparisons against TPU v3 for selected kernels and neural-network layers. Its vector-unit abstraction represents execution as sequences of reduction and broadcast phases, enabling accurate modeling of operators such as Softmax and Attention. However, this phase-based abstraction is specialized and does not expose general elementwise operations as first-class kernels. SCALE-Sim TPU builds on top of SCALE-Sim v3 and targets the capabilities missing from prior work. By validating against TPU hardware, extending support beyond systolic kernels, and adopting StableHLO as the user interface, it enables kernel-level 

> 2

Table 1: Comparison of accelerator performance simulators and modeling frameworks. We compare prior work along three axes: real hardware validation, support for elementwise (non-systolic) operations, and user interface. SCALE-Sim TPU (this work) is validated against TPU v4 hardware, extends SCALE-Sim v3 with explicit modeling of elementwise operators, and uses compiler-level StableHLO as a unified metadata interface, avoiding framework-specific input formats.                

> Work Real Hardware Validation Elementwise Operations User Interface
> SCALE-Sim v3 [9] No No CSV TimeLoop [8] No No YAML COCOSSim [1] Yes(TPU v3) No PyTorch
> SCALE-Sim TPU (this work) Yes (TPU v4) Yes StableHLO

latency estimation directly from compiler IR. Because StableHLO is widely used in MLIR-based compilation stacks, this interface provides a practical path to evaluating real workloads without manual topology specification. 

## 4 Methodology 

We organize the methodology around the three extensions in SCALE-Sim V3: (i) TPU-grounded GEMM validation, (ii) learnable latency modeling for non-systolic operators, and (iii) a StableHLO-based frontend. 

## 4.1 GEMM Modeling on Google TPU 

4.1.1 Validation of SCALE-Sim Against TPU Latency. We validate SCALE-Sim under configurations that are intentionally close to Google Cloud TPU v4 systolic-array execution models.[3] 

Setup and simulator configuration. We configure SCALE-Sim to closely mirror TPU-style systolic execution: a 2D systolic array with a 128 × 128 MAC mesh (matching TPU v4). We evaluate GEMM workloads of the form C = AB with (𝑀, 𝐾 ) × ( 𝐾, 𝑁 ) shapes using a structured parameter sweep. For each regime, we sweep each of the three dimensions (𝑀, 𝐾, 𝑁 )

over the same range separately with a fixed step size: 

• Small: 32–128 with step size 16 

• Medium: 128–1024 with step size 128 

• Large: 1024–4096 with step size 512 The three size regimes are chosen to reflect distinct execution be-haviors of TPU-style systolic arrays without implying capacity overflow of on-chip storage. The small regime (32–128) captures cases where matrix dimensions are comparable to or smaller than the array size, leading to under-utilization and making pipeline fill and drain effects dominant. The medium regime (128–1024) spans shapes that moderately exceed the array dimensions, where uti-lization improves and steady-state systolic execution becomes the primary performance determinant. The large regime (1024–4096) represents workloads that, while still fitting within on-chip storage constraints, require increasingly complex tiling, accumulation, and scheduling decisions by the TPU compiler. In this regime, execution behavior is shaped less by raw array occupancy and more by how computation is partitioned and overlapped across tiles. Smaller step sizes are used in the small regime to capture fine-grained utilization effects, whereas coarser steps suffice in the medium and large regimes where performance trends vary more smoothly with scale. 

Collecting SCALE-Sim cycles and TPU GEMM kernel runtimes. 

For each GEMM shape, we record (1) the predicted cycle count from SCALE-Sim and (2) the measured kernel runtime on TPU v4. The measured runtime reflects on-chip execution only, excluding HBM-to-core data transfers, thereby isolating the core compute behavior of the TPU’s systolic array. 

Linear regression for validation (cycle-to-time calibration). We fit a simple linear model that maps SCALE-Sim cycles to TPU fusion time: ˆ𝑡 = 𝛼 · cycles + 𝛽 , where 𝛼 represents the effective time per simulated cycle, 𝛼 · cycles captures the cycle-dependent execution time, and 𝛽 captures fixed overheads not modeled by SCALE-Sim. We report regression fits separately for the three size regimes to highlight regime-dependent behavior. 

Linear regression results. As shown in Fig. 2, SCALE-Sim cycle predictions exhibit a consistent linear relationship with measured TPU v4 fusion-kernel latency across all three size regimes. The fitted regressions achieve moderate to high goodness-of-fit, with 

𝑅 2 values ranging from approximately 0.79 in the small regime to over 0.97 in the medium and large regimes. Here, 𝑅 2 measures the fraction of variance in the measured TPU latency explained by the linear model, with higher values indicating that simulated cycle counts account for a larger portion of the observed runtime varia-tion. These results suggest that simulated cycle counts capture a substantial component of the execution cost of TPU systolic GEMM across a wide range of problem sizes. 

Error analysis and insights. Prediction errors are smallest in the medium regime, where array utilization is high and execution be-havior closely matches the idealized systolic model. In the small regime, under-utilization and pipeline effects introduce greater relative variability, leading to a lower 𝑅 2 despite small absolute errors. In the large regime, increased variance arises from factors outside SCALE-Sim’s compute-centric model, including TPU com-piler tiling decisions, layout transformations, and limits on memory bandwidth and on-chip buffering. Overall, the observed errors are well-behaved and scale smoothly with problem size, indicating no strong systematic bias across the evaluated GEMM shapes. 

4.1.2 Enabling Direct TPU Latency Estimation. Based on the strong and consistent linear correlation observed across all size regimes (Section 4.1.1), we extend SCALE-Sim to directly report estimated TPU execution time for systolic GEMM and convolution kernels. Specifically, we reuse the regime-specific linear regression functions   

> 3(a) Matrix Size in Small regime (b) Matrix Size in Medium regime (c) Matrix Size in Large regime

Figure 2: SCALE-Sim–to–TPU v4 regression for systolic GEMM across three size regimes. Each plot shows SCALE-Sim predicted cycle counts ( x-axis) versus measured TPU v4 kernel latency ( y-axis) for GEMM workloads executed on a 128 × 128 systolic array. Each point corresponds to one GEMM shape from the sweep, and the solid line shows a least-squares linear regression; the inset reports 𝑅 2, RMSE, MAE, and sample count. Across all regimes, SCALE-Sim cycle counts show a clear linear relationship with measured TPU execution time, indicating that simulated cycles provide a useful predictor of systolic GEMM latency. 

obtained during validation to map simulated cycle counts to wall-clock latency. Specifically, we reuse the linear regression function obtained during validation to map simulated cycle counts to wall-clock latency. This extension does not introduce additional modeling assump-tions or parameters beyond those already used for validation. In-stead, it leverages the observed relationship to provide users with latency estimates in physical time units, eliminating the need for manual post-processing or external calibration. The regression parameters are specific to the target TPU platform and can be re-derived when targeting different TPU generations. With this extension, SCALE-Sim TPU outputs both cycle-level and time-based performance estimates, enabling practical kernel-level latency analysis and comparison directly from StableHLO-derived workloads. 

## 4.2 Learnable latency model for elementwise operations 

Target operators. We target common non-systolic operators that are pervasive in end-to-end ML workloads but are not executed on the TPU’s systolic array, with an initial focus on elementwise operations (e.g., add, multiply, ReLU). 

Exploratory analysis and motivation. As an initial exploratory step, we manually collect bf16 elementwise-addition measurements over controlled 1D and 2D tensor-shape sweeps to understand how latency scales with tensor size. For 1D tensors, we sweep length from 32 to 8192 (step 32). For 2D tensors, we sweep each dimension from 64 to 1024 (step 64). Figures 3a and 3b plot average latency versus tensor size for the 1D and 2D sweeps. Across both sweeps, latency is approximately linear in tensor size, indicating that runtime is largely driven by the number of processed elements. However, we also observe small fluctuations: different shapes with the same tensor size can yield slightly differ-ent latencies. This motivates including tensor-shape information (in addition to total element count) in our learnable non-systolic latency model. 

Feature selection. We use tensor size and tensor shape as input features. Tensor size captures the dominant scaling behavior for ele-mentwise operations, since each element contributes a fixed amount of computation and memory traffic. However, the measurements reveal consistent latency differences across shapes with the same size, implying that performance is also influenced by shape-related factors such as vectorization granularity, alignment, and scheduling thresholds. Including tensor shape enables the model to learn these structured deviations. Both features are statically known (compile-time metadata) and independent of runtime values, making them suitable for lightweight simulator integration. 

Model choice. We use a Histogram-based Gradient Boosting Re-gressor (HGBR) to predict elementwise operator latency. Gradient-boosted decision trees are data-efficient and robust to noise: they iteratively fit simple decision trees to residual errors and aggregate them into a strong predictor [ 2 ]. By construction, tree-based models naturally capture non-linear, non-smooth, and piecewise behaviors, making them well-suited for modeling performance discontinuities induced by hardware boundaries such as tiling, alignment, and resource thresholds. Histogram-based gradient boosting further improves efficiency by discretizing continuous features into bins, reducing computation and memory overhead while preserving pre-dictive accuracy [ 5]. Compared to a single linear model, HGBR can represent discrete transitions and piecewise trends, while avoid-ing the larger data requirements and tuning complexity typically associated with neural network models. 

Training data. We construct the training dataset by measuring elementwise operator latency across a diverse set of bf16 tensor shapes, with total tensor sizes sampled log-uniformly up to a fixed maximum (up to ~16M elements). To capture shape-dependent per-formance effects, the dataset includes multiple factorizations of the same total element count, enabling the model to distinguish 

> 4(a) 1D sweep.
> (b) 2D sweep.

Figure 3: bf16 elementwise-add latency vs. tensor size for 1D (32–8192 step 32) and 2D (64–1024 step 64 per dim) sweeps; near-linear scaling with minor shape-dependent fluctua-tions. 

between tensors with identical sizes but different dimensional lay-outs. In addition, we intentionally include shapes near common hardware-relevant boundary conditions, such as dimensions aligned to powers of two ( 2𝑛 ). These boundary cases can trigger different compiler scheduling decisions, vectorization strategies, and memory align-ment behavior on TPU hardware, leading to measurable latency differences even for tensors with similar sizes. By incorporating such cases, the dataset exposes the latency model to both smooth scaling trends and discontinuities introduced by alignment- and scheduling-related effects. For each shape, latency is measured multiple times and we use the median to reduce run-to-run noise. 

Training and validation protocol. We train the model on a subset of tensor sizes and evaluate it on previously unseen sizes to assess generalization. The model is optimized to minimize absolute latency error in real time units. We report both absolute and relative error on the validation set to capture accuracy across small and large tensors. 

## 4.3 StableHLO interface 

Motivation and overview. StableHLO is a standardized intermedi-ate representation (IR) used by modern ML frameworks such as JAX and PyTorch to describe accelerator-executable programs. By tar-geting StableHLO as the input interface, SCALE-Sim TPU enables evaluation of realistic ML workloads without manually translat-ing programs into custom SCALE-Sim topology files, lowering the barrier to use and improving reproducibility across workloads and toolchains. Figure 1 provides a high-level overview of the SCALE-Sim TPU workflow. ML programs written in JAX or PyTorch are compiled into StableHLO, after which a StableHLO parser extracts operation-level metadata and converts it into simulator-compatible represen-tations. Systolic-array operations are mapped to SCALE-Sim v3 using analytic performance models, while non-systolic operations are handled by lightweight learned latency models. 

StableHLO parsing. The StableHLO parser processes compiler-emitted StableHLO modules and extracts a lightweight representa-tion for each operation. For every StableHLO operation, the parser records: 

• the operation type (e.g., dot_general , convolution , add ); 

• the input and output tensor shapes; 

• the data types (e.g., bf16); 

• and relevant attributes, such as convolution parameters. This information is stored in a uniform internal data structure (OpInfo ), which decouples the frontend IR from backend perfor-mance models and enables extensible operator handling. 

Operation conversion. Parsed StableHLO operations are classi-fied and converted into simulator-level operators based on their execution characteristics. 

Dot to GEMM. StableHLO dot_general operations that match matrix-multiplication patterns are converted into GEMM operators. The input tensor shapes and contracting dimensions are used to derive the corresponding 𝑀 , 𝑁 , and 𝐾 parameters for C = AB ,which are then passed to SCALE-Sim’s GEMM modeling interface. This conversion enables direct reuse of SCALE-Sim’s validated systolic-array performance model. 

Convolution. StableHLO convolution operations are mapped to SCALE-Sim convolution inputs when applicable. Tensor shapes and convolution attributes (e.g., strides, filter dimensions, and channel counts) are translated into SCALE-Sim convolution parameters, including IFMAP dimensions, filter sizes, number of channels, and number of filters. This mapping preserves the structural informa-tion required by SCALE-Sim’s convolution model, while excluding preprocessing and data-layout transformation costs that are not explicitly modeled. 

Other operations. Operations that are not executed on systolic arrays are currently classified as elementwise operations, includ-ing addition, subtraction, multiplication, maximum, and minimum. For these operations, the parser extracts tensor-shape information and routes them to learned latency models. This approach enables 

> 5

efficient modeling of elementwise operations that are common in modern ML workloads but are poorly captured by purely analytic models. 

## 5 Evaluation 

We evaluate SCALE-Sim TPU along three axes aligned with our contributions. GEMM validation results (including linear regression diagnostics) are presented in Section 4.1.1. 

## 5.1 Cycle-to-latency mapping evaluation (GEMM) 

We evaluate the accuracy of the cycle-to-latency mapping for GEMM kernels by comparing predicted latency against measured TPU exe-cution time across a range of matrix sizes. As shown in Figure 4, the predictions exhibit a clear positive correlation with measured latency ( 𝑅 2 = 0.893 ), indicating that SCALE-Sim captures the dom-inant scaling behavior of systolic-array execution. For small and large workloads, most points lie close to the ideal 𝑦 = 𝑥 line, suggest-ing good agreement in these regimes. However, larger deviations are observed for medium-sized workloads, where predicted latency tends to underestimate or overestimate runtime. These discrep-ancies likely arise from unmodeled system-level effects, such as scheduling overheads, data movement, and kernel fusion behav-ior, which are not captured by the simple linear mapping. As a result, while the mapping provides a reasonable first-order estimate of TPU latency, its accuracy varies across workload regimes, and aggregate metrics such as MAPE (32.2%) are influenced by these mid-range deviations. 

## 5.2 Elementwise latency prediction 

Evaluation of learned latency models for elementwise operations. 

We evaluate the learned latency models for non-systolic operations using representative elementwise kernels, specifically addition and ReLU (maximum). These operations capture two dominant classes of elementwise behavior: pure arithmetic and arithmetic with com-parison. For each operation, we compare the estimated latency pro-duced by the learned model against measured TPU latency across a diverse set of tensor shapes. Figure 5 shows the estimated versus measured latency for ele-mentwise addition and ReLU. Each point corresponds to one tensor shape, and the dashed diagonal indicates perfect prediction. In both cases, the predicted latency closely tracks the measured latency across the full range of tensor sizes. For elementwise addition, the learned model achieves an 𝑅 2 value of 0.9973, with a median absolute error of 1.04 𝜇 s and a median relative error of 1.78%. For ReLU, which introduces additional com-parison and control logic, the model attains an 𝑅 2 of 0.9980, with a median absolute error of 1.65 𝜇 s and a median relative error of 2.55%. These results indicate that the model captures both the dom-inant size-dependent scaling behavior and secondary shape-related effects. Across both operations, larger absolute errors occur primarily at small tensor sizes, where fixed overheads dominate execution time. Nevertheless, relative error remains low across the evaluated range, demonstrating that the learned model generalizes well beyond the specific shapes used during training. 

Figure 4: Predicted vs. actual GEMM latency on TPU v4. Each point represents a GEMM configuration, grouped by work-load size (small, medium, large). The dashed line indicates perfect prediction ( 𝑦 = 𝑥 ). While SCALE-Sim TPU preserves the overall scaling trend across sizes ( 𝑅 2 = 0.893 ), deviations are more pronounced for medium-sized workloads, leading to higher aggregate error (MAPE = 32.2%). 

## 6 Conclusion 

This paper validates and extends SCALE-Sim v3 for TPU-oriented performance analysis. By comparing against real TPU measure-ments, we show that SCALE-Sim’s cycle-level GEMM predictions exhibit a strong linear relationship with hardware execution time, enabling a simple and effective cycle-to-latency mapping. Building on this observation, we extend SCALE-Sim to directly report TPU latency estimates and to model common non-systolic elementwise operations using lightweight learned models. We further integrate StableHLO as a frontend, allowing workloads from modern ML compiler stacks to be simulated without manual topology specifica-tion. Together, these extensions improve the accuracy and usability of SCALE-Sim for whole-model latency estimation on TPUs. 

## References          

> [1] Mansi Choudhary, Chris Kjellqvist, Jiaao Ma, and Lisa Wu Wills. 2025. COCOSSim: A Cycle-Accurate Simulator for Heterogeneous Systolic Array Architectures. In
> 2025 IEEE International Symposium on Performance Analysis of Systems and Software (ISPASS) . 174–185. doi:10.1109/ISPASS64960.2025.00025 [2] Jerome H. Friedman. 2001. Greedy Function Approximation: A Gradient Boost-ing Machine. The Annals of Statistics 29, 5 (2001), 1189–1232. doi:10.1214/aos/ 1013203451 [3] Norm Jouppi, George Kurian, Sheng Li, Peter Ma, Rahul Nagarajan, Lifeng Nai, Nishant Patil, Suvinay Subramanian, Andy Swing, Brian Towles, Clifford Young, Xiang Zhou, Zongwei Zhou, and David A Patterson. 2023. TPU v4: An Optically Reconfigurable Supercomputer for Machine Learning with Hardware Support for Embeddings. In Proceedings of the 50th Annual International Symposium on Computer Architecture (Orlando, FL, USA) (ISCA ’23) . Association for Computing Machinery, New York, NY, USA, Article 82, 14 pages. doi:10.1145/3579371.3589350 [4] Rachid Karami, Sheng-Chun Kao, and Hyoukjun Kwon. 2025. Understanding the Performance Horizon of the Latest ML Workloads with NonGEMM Workloads. In
> 6

(a) Elementwise addition. 

(b) ReLU (maximum). 

Figure 5: Learned latency model evaluation for non-systolic (elementwise) operations. Estimated versus measured TPU latency for (top) elementwise addition and (bottom) ReLU (maximum) across a diverse set of tensor shapes. Each point is one tensor shape; the dashed diagonal indicates perfect prediction. 

2025 IEEE International Symposium on Performance Analysis of Systems and Software (ISPASS) . 1–14. doi:10.1109/ISPASS64960.2025.00011 Accessed: 2026-02-07. [5] Guolin Ke, Qi Meng, Thomas Finley, Taifeng Wang, Wei Chen, Weidong Ma, Qiwei Ye, and Tie-Yan Liu. 2017. LightGBM: A Highly Efficient Gradient Boosting Decision Tree. In Advances in Neural Information Processing Systems , Isabelle Guyon, Ulrike von Luxburg, Samy Bengio, Hanna Wallach, Rob Fergus, S. V. N. Vishwanathan, and Roman Garnett (Eds.), Vol. 30. Curran Associates, Inc., 3146– 3154. https://papers.nips.cc/paper/6907-lightgbm-a-highly-efficient-gradient-boost [6] Zhuojin Li, Marco Paolieri, and Leana Golubchik. 2024. Inference latency predic-tion for CNNs on heterogeneous mobile devices and ML frameworks. Performance Evaluation 165 (2024), 102429. doi:10.1016/j.peva.2024.102429 [7] OpenXLA Project. 2024. StableHLO: A Stable High-Level Operations Dialect. https://openxla.org/stablehlo. Accessed: 2026-02-05. [8] Angshuman Parashar, Priyanka Raina, Yakun Sophia Shao, Yu-Hsin Chen, Victor A. Ying, Anurag Mukkara, Rangharajan Venkatesan, Brucek Khailany, Stephen W. Keckler, and Joel Emer. 2019. Timeloop: A Systematic Approach to DNN Accelera-tor Evaluation. In 2019 IEEE International Symposium on Performance Analysis of Systems and Software (ISPASS) . 304–315. doi:10.1109/ISPASS.2019.00042 [9] Ritik Raj, Sarbartha Banerjee, Nikhil Chandra, Zishen Wan, Jianming Tong, Ananda Samajdhar, and Tushar Krishna. 2025. SCALE-Sim V3: a Modular Cycle-Accurate Systolic Accelerator Simulator for End-To-End System Analysis. In 2025 IEEE International Symposium on Performance Analysis of Systems and Software (ISPASS) .186–200. doi:10.1109/ISPASS64960.2025.00026