Title: ACALSim: A Scalable Parallel Simulation Framework for High-Performance System Design Space Exploration

URL Source: https://arxiv.org/pdf/2605.22936v1

Published Time: Mon, 25 May 2026 00:11:41 GMT

Number of Pages: 24

Markdown Content:
# ACALSim: A Scalable Parallel Simulation Framework for High-Performance System Design Space Exploration 

WEI-FEN LIN, Mijotech Inc., Taiwan and Taiwan High-Performance Computing Education Association, Taiwan 

JEN-CHIEN CHANG, National Cheng Kung University, Taiwan and Taiwan High-Performance Computing Education Association, Taiwan 

YEN-PO CHEN, National Cheng Kung University, Taiwan and Taiwan High-Performance Computing Education Association, Taiwan 

ZI-YI TAI, Taiwan High-Performance Computing Education Association, Taiwan 

YU-CHENG CHANG, National Yang Ming Chiao Tung University, Taiwan and Taiwan High-Performance Computing Education Association, Taiwan 

CHIA-PAO CHIANG, National Cheng Kung University, Taiwan 

YU-YANG LEE, National Cheng Kung University, Taiwan 

YU-JIE WANG, National Cheng Kung University, Taiwan Architectural simulation has become the critical bottleneck limiting design space exploration for high-performance computing systems. The growing complexity of modern GPUs and AI accelerators—with hundreds to thousands of tightly-coupled components—demands simulation frameworks that deliver efficient paral-lelism and scalable single-node execution. Existing frameworks such as SST, gem5, and GPGPU-Sim fail to meet these requirements: SST focuses on multi-node MPI scalability but struggles with intra-node scaling; GPGPU-Sim remains largely single-threaded. Critically, these frameworks provide fixed threading models with no mechanism for users to optimize simulation performance for their specific workloads. We introduce ACALSim, a scalable parallel simulation framework designed to accelerate design space exploration for high-performance systems. As a framework contribution, ACALSim provides infrastructure and APIs for building high-performance simulators—timing model accuracy is the responsibility of simulator developers, not the framework. ACALSim’s key innovation is a pluggable thread management architecture 

that enables developers to implement custom scheduling strategies optimized for specific simulation patterns— a capability absent in existing frameworks. This is complemented by (1) event-driven execution with fast-forward to eliminate idle cycle overhead, (2) a shared-memory data model enabling zero-copy communication, and (3) a two-phase parallel execution model for deterministic thread scaling. We demonstrate ACALSim’s effectiveness through HPCSim, a GPU simulator targeting A100-class architectures. Direct comparison with an SST implementation—using identical shared timing cores to isolate framework overhead—shows ACALSim achieves over 14 × speedup with 41% lower memory footprint, while hardware validation confirms 0.72–1.22 ×

cycle count correlation with A100 measurements. While SST fails to complete 256+ thread block workloads 

Authors’ Contact Information: Wei-Fen Lin, weifen@twhpcedu.org, Mijotech Inc., Taiwan and Taiwan High-Performance Computing Education Association, Taiwan; Jen-Chien Chang, jenchien@twhpcedu.org, National Cheng Kung University, Tainan, Taiwan and Taiwan High-Performance Computing Education Association, Taiwan; Yen-Po Chen, yenpo@twhpcedu. org, National Cheng Kung University, Tainan, Taiwan and Taiwan High-Performance Computing Education Association, Taiwan; Zi-Yi Tai, elisatai@twhpcedu.org, Taiwan High-Performance Computing Education Association, Taiwan; Yu-Cheng Chang, yuchang@twhpcedu.org, National Yang Ming Chiao Tung University, Taiwan and Taiwan High-Performance Computing Education Association, Taiwan; Chia-Pao Chiang, daniel100373@gmail.com, National Cheng Kung University, Tainan, Taiwan; Yu-Yang Lee, ppalee1217@gmail.com, National Cheng Kung University, Tainan, Taiwan; Yu-Jie Wang, pine0113@gmail.com, National Cheng Kung University, Tainan, Taiwan. 

This work is licensed under a Creative Commons Attribution 4.0 International License. 

© 2026 Copyright held by the owner/author(s). ACM 2476-1249/2026/6-ART28 https://doi.org/10.1145/3805626 Proc. ACM Meas. Anal. Comput. Syst., Vol. 10, No. 2, Article 28. Publication date: June 2026.               

> arXiv:2605.22936v1 [cs.AR] 21 May 2026 28:2 Wei-Fen Lin et al.
> within practical time limits, ACALSim simulates full LLaMA transformer layers (single block) in 17.7 minutes for LLaMA-7B and 30.4 minutes for LLaMA-13B—enabling practical design space exploration that SST cannot achieve. CCS Concepts: •Computer systems organization →Special purpose systems ;•Computing method-ologies →Massively parallel and high-performance simulations ;•Software and its engineering →
> Abstraction, modeling and modularity .Additional Key Words and Phrases: cycle-accurate simulation, parallel discrete-event simulation, design space exploration, GPU architecture, LLM inference, high-performance computing
> ACM Reference Format:
> Wei-Fen Lin, Jen-Chien Chang, Yen-Po Chen, Zi-Yi Tai, Yu-Cheng Chang, Chia-Pao Chiang, Yu-Yang Lee, and Yu-Jie Wang. 2026. ACALSim: A Scalable Parallel Simulation Framework for High-Performance System Design Space Exploration. Proc. ACM Meas. Anal. Comput. Syst. 10, 2, Article 28 (June 2026), 24 pages. https: //doi.org/10.1145/3805626

1 Introduction 

The rapid proliferation of large-scale AI models has fundamentally transformed the landscape of high-performance computing (HPC) system design. Modern AI accelerators—from GPUs with hundreds of streaming multiprocessors to custom AI chips with specialized tensor units—must be designed and validated within increasingly compressed product cycles. This paradigm shift necessitates early-stage architectural simulation to evaluate design trade-offs through comprehen-sive hardware-software co-simulation before committing to silicon. The development of effective solutions in this domain requires unprecedented collaboration among multiple research teams, each contributing specialized expertise to address both timing constraints and design complexity. However, the collaborative nature of modern AI computing system development, coupled with their inherent complexity, presents several significant challenges: 

• Comprehensive System Simulation : Early-stage system-level simulation is crucial to accurately predict system-wide performance and identify potential bottlenecks, as individual compo-nent simulations often fail to capture emergent behaviors from component interactions. Simulating a modern GPU requires modeling not only individual SMs but also the memory hierarchy, on-chip interconnects, and their complex interactions under realistic workloads such as LLM inference. While hardware emulation can accelerate system verification, re-source constraints—particularly in academic settings—often make software-based simulation the practical alternative [10]. 

• Cross-team Simulation Integration : Integrating diverse simulation components from different teams and IP providers poses significant challenges. The use of proprietary tools, open-source frameworks, and varying architectures creates heterogeneous environments with incompatible data formats. A GPU simulator may require SM models, memory controller models, and NoC models—each developed by different teams using different methodologies. Overcoming these challenges requires interface standardization and timing synchronization across simulation boundaries. 

• High-Performance Simulation : As simulation scope expands and component count increases, simulation duration grows prohibitively. An A100-class GPU with 108 SMs, hierarchical caches, and NOC-based interconnects requires simulating hundreds of interacting compo-nents across millions of cycles. Without adequate simulation performance, design space exploration becomes impractical—limiting architects to evaluating only a handful of configu-rations [10, 28].  

> Proc. ACM Meas. Anal. Comput. Syst., Vol. 10, No. 2, Article 28. Publication date: June 2026. ACALSim: A Scalable Parallel Simulation Framework for High-Performance System Design Space Exploration 28:3

Table 1. Comparison of Contemporary Computer Architecture Simulators                                      

> Simulator Perf PSS OSS Characteristics
> Performance-Oriented Simulators
> FireSim [13] VH Full ✓+FPGA-accelerated; -HW depen-dent GPGPU-Sim [1] HFull ✓+GPU modeling; -GPU specific SST [25] MFull ✓+Component-based; -MPI over-head ZSim [27] HFull ✓+Many-core sim; -x86 specific
> System-Level Simulators
> SystemC-TLM [23] LLtd ✓+TLM; -Limited parallelism Gem5-SystemC [21] LLtd ✓+Cycle-accurate; -Overhead QEMU-SystemC [31] LLtd ✓+Fast functional; -Low accuracy Simics [18] HFull ×+Full-system; -Commercial
> Note: Perf=Performance (VH/H/M/L), PSS=Parallel Support, OSS=Open-Source, Ltd=Limited

While prior works summarized in Table 1 have addressed specific aspects of system simulation, a comprehensive framework that addresses all three challenges simultaneously remains elusive. Most existing solutions focus on specific domains (CPU, memory, network) rather than providing a unified framework for arbitrary accelerator architectures. SST[ 25 ] offers component-based modularity and MPI-based distribution but suffers from clock-driven execution overhead and limited single-node thread scaling. GPGPU-Sim [ 1 ] provides detailed GPU modeling but remains largely single-threaded and tightly coupled to specific NVIDIA ISAs. Critically, none of these frameworks provide mechanisms for users to customize thread scheduling based on their specific workload patterns —a significant limitation given the diverse simulation characteristics of different accelerator architectures. Furthermore, while frameworks like SST provide scalability across nodes via MPI, they struggle to scale efficiently within a single node when simulating systems with hundreds to thousands of tightly-coupled components—precisely the scenario encountered in modern GPU and AI accelerator simulation. To address these limitations, an ideal simulation framework should possess: (1) a flexible plugin-based architecture allowing easy integration and customization across team boundaries, (2) well-defined APIs and standardized data exchange to facilitate seamless communication between heterogeneous simulation components, (3) support for efficient parallel simulation with smart synchronization mechanisms that scale with modern multi-core workstations, and (4) user-extensible thread management to optimize performance for diverse simulation patterns. We present ACALSim 1, a multi-threaded simulation framework designed to address the aforemen-tioned challenges in large-scale parallel system design exploration. As a framework contribution, ACALSim provides infrastructure and APIs—the accuracy of timing models built on ACALSim is the responsibility of simulator developers, enabling teams to iterate on their models independently while benefiting from the framework’s performance advantages. By abstracting the complexity of multi-threaded programming and enabling efficient hardware modeling, ACALSim distinguishes itself from existing frameworks through four key innovations: (1) Pluggable Thread Management (Primary Contribution) : Unlike SST, gem5, and other frame-works that impose fixed threading models, ACALSim provides an abstract ThreadManager 

interface that enables developers to implement custom scheduling strategies optimized for  

> 1ACALSim is released as open-source software at https://github.com/twhpcedu/acalsim. Case study simulators built on ACALSim (HPCSim, NVSim) have separate availability constraints due to industrial collaboration and developer discretion. Proc. ACM Meas. Anal. Comput. Syst., Vol. 10, No. 2, Article 28. Publication date: June 2026. 28:4 Wei-Fen Lin et al.

their specific simulation patterns. This simulation-pattern-driven optimization capability is unique among simulation frameworks and enables order-of-magnitude performance im-provements for specific workload classes (Section 5.1). (2) Event-Driven Execution with Fast-Forward : Unlike clock-driven simulators that invoke every component every cycle, ACALSim’s event-driven model with fast-forward capability skips idle cycles entirely, providing significant speedup for workloads with sparse activation patterns common in modern AI accelerators. (3) Two-Phase Parallel Execution : ACALSim’s deterministic two-phase model (parallel component execution followed by synchronous commit) ensures reproducible results regardless of thread scheduling, simplifying debugging of complex timing issues. (4) Shared-Memory Architecture : ACALSim’s shared-memory data model eliminates the event-copying overhead inherent in message-passing frameworks, enabling both efficient timing simulation and practical functional simulation with real data at scale. A key design principle underlying these innovations is transparent parallelism : ACALSim’s abstractions ( SimPort , SimChannel , SharedDataContainer ) handle all synchronization internally, allowing developers to write simulator components using familiar single-threaded programming patterns. The framework automatically parallelizes execution during Phase 1 without requiring users to manage locks, barriers, or other concurrency primitives—significantly lowering the barrier to developing high-performance parallel simulators. To validate ACALSim’s effectiveness, we present multiple case studies spanning different ar-chitectures and development teams. The primary case study is HPCSim 2, a comprehensive cycle-approximate GPU performance simulator targeting A100-class architectures. HPCSim models 108 streaming multiprocessors, HBM2 memory subsystems, and NOC-based L2 interconnects— representing the complexity of modern AI accelerators. We implement functionally equivalent versions of HPCSim using both ACALSim and SST, enabling direct comparison under identical workloads. Our evaluation using LLM inference workloads demonstrates that ACALSim achieves over 14 × speedup in wall-clock simulation time compared to the SST implementation. Hard-ware validation against A100 measurements confirms HPCSim achieves 0.72–1.22 × cycle count correlation ( ∼20% average error), providing sufficient fidelity for design space exploration. More-over, SST’s cycle-accurate model fails to complete medium-scale GPU workloads (256+ thread blocks) within practical time limits, while ACALSim successfully simulates full LLaMA transformer layers (17.7 minutes for LLaMA-7B, 30.4 minutes for LLaMA-13B single block). Additional case studies—NVSim (H100-class 8-GPU DGX system) and BlackBear (custom 64-PE AI accelerator with arbiter-tree NoC)—demonstrate generalizability beyond A100 GPUs (Section 5). The remainder of this paper is organized as follows. Section 2 provides a comprehensive overview of the ACALSim architecture, detailing its core components and operational principles including the two-phase execution model and thread management strategies. Section 3 presents the HPCSim case study, describing the GPU simulator architecture, engineering effort, and methodology for comparative evaluation against SST, with experimental results analyzing simulation performance across diverse workloads. Section 4 discusses best practices for hybrid ACALSim-SST integration in multi-device system modeling. Section 5 demonstrates generalizability through additional case studies and explores simulation performance enhancement through thread manager specialization. Section 6 reviews related work in hardware simulation frameworks, positioning our contribution within the broader research landscape. Finally, Section 7 concludes with a summary of our findings and outlines directions for future research in high-performance architectural simulation.  

> 2HPCSim is part of an industrial collaboration; detailed project specifications and links will be released upon project completion. Proc. ACM Meas. Anal. Comput. Syst., Vol. 10, No. 2, Article 28. Publication date: June 2026. ACALSim: A Scalable Parallel Simulation Framework for High-Performance System Design Space Exploration 28:5
> Fig. 1. ACALSim Framework Block Diagram

2 ACALSIM OVERVIEW 2.1 Core Infrastructure 

Figure 1 depicts the major components within ACALSim. The core of the framework is encapsulated by the class SimTop , which serves as the control thread of the simulation. Each individual simulator is represented by a SimBase object. SimTop maintains a global clock that represents the current sim-ulation cycle and oversees the coordination and synchronization of all the simulators. This section provides an overview of the key components relevant to correctness and performance, excluding the utility components: SimTraceContainer , which handles trace generation and collection, and 

SimConfigContainer , which handles simulation configuration parameters. To emulate concurrency in hardware, ACALSim runs simulators in parallel across multiple threads. The control thread spawns threads at the start through the ThreadManager , and the 

TaskManager dynamically schedules tasks across them. The synchronization of threads is managed by the ThreadManager throughout the simulation. The ThreadManager in ACALSim creates all software threads for simulators at the beginning of the simulation and only terminates them at the end. This approach allows a fixed mapping between software threads and hardware threads (i.e., the physical CPU cores). The default thread manager, 

ThreadManagerV1 , spawns one software thread per available hardware thread to minimize context-switching. Although this default setup leaves the mapping from software threads to hardware threads to the OS for simplicity, developers can implement custom thread managers to optimize performance by explicitly binding threads to specific cores when needed. This extensibility has proven valuable in practice: coauthors have independently developed ThreadManagerV2 through 

V8 for their respective simulators, each tailored to specific workload patterns (Section 5.1). 

2.2 Simulation Flow 

Figure 2 illustrates the simulation flow of ACALSim, which advances in two distinct phases within each cycle. (1) Parallel Component Simulation : In this phase, simulators execute their designated tasks in parallel across the simulator threads. Each simulator halts execution once it completes its tasks for the cycle. We refer to this phase as Phase 1 in the rest of this paper.  

> Proc. ACM Meas. Anal. Comput. Syst., Vol. 10, No. 2, Article 28. Publication date: June 2026. 28:6 Wei-Fen Lin et al.
> Fig. 2. ACALSim Simulation Flow

(2) Control Thread Bookkeeping : Once all simulators have paused after completing their tasks, the control thread handles essential bookkeeping and coordinates interactions between simulators, such as data sharing, communication, and advancing the global clock to the next cycle. This phase, referred to as Phase 2 , runs exclusively on the control thread. Minimizing the duration of this phase is critical for optimizing performance, as it contributes to overhead in the framework. 

2.3 Event-Driven Simulation 

ACALSim adopts the event-driven simulation model to optimize performance by simulating only cycles with activities. Each simulator maintains its own event queue, with events tagged by the cycle in which they occur. As SimTop advances the global clock, it skips inactive cycles and fast-forwards to the next cycle with events. Events contain both the scheduled time for execution and the specific action the simulator should take upon processing. A simulator can schedule events for itself or another simulator via channels (See Section 2.5). For example, to simulate a memory request from a processing element to the cache, the processing element can schedule an event for the cache. To efficiently simulate the acknowledgment back, we use callback events, which include a function pointer that will be executed after the event is processed, eliminating the need for a separate return event and completing the transaction cycle in one step. This method accurately models the bidirectional flow of data and control signals in hardware. 

2.4 Data Sharing Model 

In multithreading, shared objects in the same memory space can become corrupted without proper synchronization, leading to incorrect behavior. To simplify synchronization, ACALSim uses a 

SharedDataContainer to manage data sharing. This abstraction prevents users from directly handling synchronization primitives like mutexes while ensuring safe access to shared data. Any data accessed by multiple simulators should be managed through this container. 

2.5 Communication Model 

To ensure reliable communication between simulators running in parallel during Phase 1, ACALSim introduces SimChannel objects for directional data transmission. To avoid race conditions, we adopt a double-buffering strategy. Each channel is equipped with a ping buffer and a pong buffer: during Phase 1, the sender writes to the ping buffer, while the receiver reads from the pong buffer.  

> Proc. ACM Meas. Anal. Comput. Syst., Vol. 10, No. 2, Article 28. Publication date: June 2026. ACALSim: A Scalable Parallel Simulation Framework for High-Performance System Design Space Exploration 28:7

In Phase 2, the control thread swaps the buffers to ensure safe data exchange without requiring synchronized execution between sender and receiver. Like SharedDataContainer , SimChannel 

manages synchronization internally, eliminating the need for users to handle locks directly. 

2.6 Hardware-Aware Communication Infrastructure 

While SimChannel s facilitate software-level inter-simulator communication, our framework incor-porates specialized components that model realistic hardware behavior for data transmission. This infrastructure consists of foundational building blocks ( SimPort , SimPipeRegister ) and composite structures like CrossBar . SimPort provides hardware-realistic endpoints where simulators interact through multiple ports, simulating physical connections with arbitration and queue management. Ports are master (senders) or slave (receivers), with multiple masters connectable to a single slave. Each cycle, master ports push requests to connected slaves, which use arbitration to select one for processing. Both port types maintain mirrored entries synchronized by the control thread during phase 2. Slave ports process one packet per cycle max, with excess in a FIFO queue. Full queues trigger back pressure with configurable callbacks. SimPipeRegister models register-based data transfers between pipeline stages across simulators, enhancing hardware realism. Building on these, CrossBar simulates complex networks using SimPort and SimPipeRegister . This lay-ered approach simplifies hardware modeling and makes multi-threading transparent. As SimBase 

objects may run on different threads, these connection components handle all synchronization automatically, removing user concurrency management. 

2.7 Object Pool 

ACALSim’s packet-based nature creates numerous short-lived objects, causing allocation overhead and memory fragmentation. The multi-threaded environment complicates standard object pooling: threads and simulators have dynamic mappings, distinct allocation patterns, and objects allocated by one simulator are often recycled by another. The RecycleContainer addresses this with thread-local pools backed by a global pool. Local pools offload excess objects and replenish from the global pool when depleted, minimizing mutex contention. An array-of-linked-lists data structure achieves O(1) inter-pool transfers. 

2.8 Thread Manager Design 

The thread manager design is critical for simulation performance. While assigning a dedicated thread to each simulator in Phase 1 may seem straightforward, it has drawbacks: 1) A significant portion of threads might be run unnecessarily for inactive simulators at each iteration, and 2) excessive context switching occurs when the number of simulators exceeds available CPU cores, degrading performance. To address these issues, ACALSim employs a thread pooling strategy that minimizes context switching and thread creation overhead. Instead of assigning a thread to each simulator, the thread manager creates a fixed number of threads, typically equal to the number of available cores. Each simulator is treated as a task, and at each iteration, the task manager schedules only the active simulators as tasks to be processed by the software threads. This design is implemented through abstract ThreadManager and TaskManager classes, which provide a flexible interface for developers to implement custom thread management strategies. The modular nature of the framework allows different thread allocation and task scheduling mechanisms to be easily tested, enabling developers to optimize performance based on specific simulation patterns. We compared the thread pooling strategy ( ThreadManagerV1 , detailed in Section 5.1) with a simpler design where each simulator uses its own thread. In both approaches, only active simulators run during Phase 1 of each iteration. Figure 3 shows performance comparisons using a test case with  

> Proc. ACM Meas. Anal. Comput. Syst., Vol. 10, No. 2, Article 28. Publication date: June 2026. 28:8 Wei-Fen Lin et al.
> Fig. 3. Thread Manager Performance Comparison

a configurable grid of processing elements (PEs) interconnected by a mesh-based network-on-chip, connected to shared cache and memory. The test injected traffic from the master CPU to random PEs and simulated the response. To assess scalability, total traffic was fixed while increasing the number of PEs, distributing computation across more simulators. Although neither scales linearly (as the average active simulators per iteration is constant), thread pooling scales better by minimizing context switching. 

2.9 C++/SystemC Integration 

A key challenge in the high-performance computing project involves integrating simulators across teams, particularly bridging a SystemC-based simulator with other C++ components. ACALSim provides interface designs to facilitate seamless integration between SystemC-based and C++ simu-lators. SystemC-based simulators can inherit the SCSimBase class to wrap original implementations for integration. For C++ simulator interaction, an SCInterface instance connects the SystemC simulator to C++ components. While users can define custom I/O signals based on their SystemC modules, the framework provides two predefined I/O interfaces to streamline communication between user-defined SystemC modules and the ACALSim framework. 

2.10 SST Integration 

SST [ 25 ] offers complementary strengths: MPI-based multi-node distribution and validated compo-nents (Merlin for networks, memHierarchy for caches). ACALSim supports hybrid integration where ACALSim simulators are wrapped as SST components. The wrapper translates between frame-works: SST clock callbacks invoke ACALSim’s simulation loop (with fast-forward), SST events are converted to/from ACALSim packets via SimPort /SST::Link , and the ACALSim ThreadManager 

continues parallelizing Phase 1 within the SST component. This enables scalable multi-node deployment: each MPI rank hosts an ACALSim-wrapped SST component (e.g., one GPU per rank), achieving scale-out via MPI and scale-up via multi-threading. An ACALSim GPU simulator can also connect to SST’s Merlin or memHierarchy without re-implementing validated components. 

3 Case Study: A100 GPU Modeling 

To evaluate ACALSim’s effectiveness for cycle-accurate AI accelerator simulation, we developed HPCSim, a comprehensive GPU simulator for LLM inference workloads. We implemented two versions of the NVIDIA A100 GPU model: one using ACALSim’s native two-phase execution model  

> Proc. ACM Meas. Anal. Comput. Syst., Vol. 10, No. 2, Article 28. Publication date: June 2026. ACALSim: A Scalable Parallel Simulation Framework for High-Performance System Design Space Exploration 28:9

Table 2. HPCSim A100 Configuration Parameters (all controllable via JSON)                    

> Category Parameter A100 Default
> Compute SM count 108 GPCs 7 (16 SMs/GPC) Clock frequency 1.41 GHz Max thread blocks/SM 32 L2 Cache Total size 40 MB Slices (partitions) 32 Associativity 16-way Cache line size 128 B HBM Controllers 10 Aggregate bandwidth 2 TB/s Access latency 100 ns NoC Topology Crossbar Ports 108 ↔32 Arbitration Round-robin Execution Worker threads 8 (configurable) ThreadManager V1 (pluggable)

(A100-ACALSim), and another using SST’s event-driven framework (A100-SST). This comparison demonstrates the practical advantages of ACALSim’s simulation paradigm. 

Scope and Methodology. This paper contributes a simulation framework , not a validated simulator. The distinction parallels SST [ 25 ] (framework) versus its validated component libraries, or gem5 [ 21 ] (framework) versus calibrated CPU models. Framework papers establish infrastructure contributions; timing model validation is an orthogonal concern for simulator developers. Our performance comparison uses identical shared timing cores (L2CacheCore, HBMControllerCore, GlobalNoCCore, SMTimingModel) compiled into both implementations, ensuring any accuracy difference is zero by construction . The comparison thus isolates framework overhead, not modeling fidelity. HPCSim serves as a case study demonstrating framework capabilities at realistic scale. 

3.1 A100 Architecture Modeling 

Both implementations model the A100’s hierarchical architecture with all parameters specified through a JSON configuration file ( ∼80 lines), allowing users to sweep architectures without recompilation. Table 2 lists the controllable parameters and their default A100 values used in our evaluation. The implementations share identical timing parameters, isolating the framework as the only variable. 

Workload Representation. HPCSim employs a three-tier DAG: Model Graph (operator de-pendencies), Kernel Graph (thread block dimensions, memory footprints), and ThreadBlock Graph (tensor core instructions, memory transactions). DAG is the recommended but not required format— developers can override the workload interface for trace-driven replay or other inputs. For LLaMA workloads, the DAG is auto-generated from model definitions via a Python script ( ∼200 lines). 

Component Hierarchy. Table 3 shows the component mapping between implementations. A100-ACALSim uses SimBase -derived components with SimPort interconnections, while A100-SST uses SST Components and SubComponents with SST::Link connections. 

3.2 Engineering Effort and Developer Workflow 

The ACALSim framework comprises ∼26K lines of C++ (102 files) providing threading, synchro-nization, communication, and profiling infrastructure. Simulator developers write only application-specific timing models: HPCSim (A100) is ∼18K LoC, HPCSim (H100) is ∼9K LoC, and BlackBear (custom 64-PE accelerator) is ∼10K LoC. All share ∼19K LoC of reusable timing cores (L2, HBM, NoC). The SST-wrapped A100 adds ∼11K LoC for event translation and credit-based flow control.                

> Proc. ACM Meas. Anal. Comput. Syst., Vol. 10, No. 2, Article 28. Publication date: June 2026. 28:10 Wei-Fen Lin et al.
> Table 3. A100 Component Mapping Between Implementations
> Component ACALSim SST
> GPU Top A100:SimBase A100SSTGPUComp Control A100CtrlUnit A100SSTCtrlUnit SM ( ×108) A100SM A100SSTGPC/SM L2 ( ×32) L2Partition A100SSTL2Part NoC GlobalNoC A100SSTGlobalNoC HBM ( ×10) HBMCtrl A100SSTHBMCtrl

Developer workflow. Building a simulator involves four steps: (1) subclass SimBase for each hardware block, connecting them via SimPort —developers write single-threaded step() methods; (2) obtain timing parameters from RTL, datasheets, or profiling tools; (3) construct workloads as DAG representations or execution traces; (4) use integrated profiling to identify bottlenecks and select a ThreadManager variant. A developer building a new target (e.g., H100) writes ∼9K LoC while inheriting shared cores and framework infrastructure. 

3.3 Simulation Model Comparison 

Two-Phase vs. Event-Driven Execution. ACALSim’s two-phase execution provides deterministic, reproducible simulation. In Phase 1, all components execute their step() methods in parallel, reading from current state and writing to next-state buffers. In Phase 2, the synchronization phase commits all state changes atomically and arbitrates port transfers. This separation ensures that component execution order does not affect simulation results—a critical property for debugging complex timing issues. SST’s event-driven model delivers events asynchronously through handlers. While this approach is natural for loosely-coupled distributed systems, it introduces challenges for tightly-coupled GPU architectures. The A100’s crossbar NoC requires simultaneous arbitration across 108 SM request ports—a scenario that maps naturally to ACALSim’s synchronous Phase 2 arbitration but requires careful event ordering in SST. 

Backpressure Modeling. GPU memory systems exhibit significant backpressure when down-stream resources are saturated. ACALSim’s SimPort abstraction directly models request-side back-pressure: push() returns false when the downstream buffer is full, causing the sender to retry in the next cycle. This matches hardware behavior where stalled pipelines propagate backpressure upstream. For response-side backpressure (e.g., when a requester’s response buffer is full), the default callback model assumes the requester can always accept responses—which is accurate for most GPU components where response buffers are sized to match outstanding request limits. For scenar-ios requiring response-side flow control (e.g., modeling congestion in asymmetric interconnects), developers can add a SimPort on the return path with its own buffer depth and backpressure callback, enabling full bidirectional flow control. For A100-SST, we implemented credit-based flow control to emulate backpressure. While func-tionally equivalent, credit management adds implementation complexity and requires careful tuning of credit pools to match the original timing behavior. 

Beyond Timing. ACALSim’s SimPort queue depths and backpressure callbacks already model network congestion (buffer overflow, stall propagation). The abstractions impose no restriction on event semantics—developers can include error flags, corruption markers, or topology changes in packet types to model failure injection or link degradation. 

Fast-Forward Optimization. GPU workloads exhibit bursty activity patterns with idle periods between kernel launches. ACALSim’s fast-forward mechanism identifies the minimum next-event  

> Proc. ACM Meas. Anal. Comput. Syst., Vol. 10, No. 2, Article 28. Publication date: June 2026. ACALSim: A Scalable Parallel Simulation Framework for High-Performance System Design Space Exploration 28:11

tick across all components and advances the global clock accordingly, skipping cycles with no pending activity. This optimization is implemented at the framework level, requiring no component-specific code. In SST, idle optimization requires explicit clock unregistration and reregistration for each component, increasing code complexity. 

3.4 Implementation Differences 

Both implementations share identical timing cores (L2CacheCore, HBMControllerCore, GlobalNoC-Core, SharedTimingModel), ensuring performance differences reflect framework overhead rather than modeling fidelity. ACALSim uses inheritance-based integration via C++ templates, while SST uses composition with standalone cores. SST requires explicit event serialization for distributed sim-ulation; ACALSim’s SimPacket uses unified packet types. For backpressure, ACALSim’s SimPort 

provides native support versus SST’s credit-based flow control. 

3.5 Discussion 

The A100 case study demonstrates that ACALSim’s two-phase execution model offers practical advantages for GPU simulation: (1) Determinism : Parallel Phase 1 execution with synchronous Phase 2 commit eliminates timing dependencies on component ordering. (2) Natural Backpressure : SimPort ’s blocking push() semantics directly model hardware stall propagation without additional flow control logic. (3) Transparent Fast-Forward : Framework-level idle cycle elimination requires no per-component implementation. (4) Simplified Communication : Unified packet types and implicit state synchronization via 

SimPort eliminate the need for explicit event serialization and credit-based flow control. While SST provides valuable capabilities for distributed simulation and multi-framework inte-gration, its event-driven paradigm introduces abstraction overhead for cycle-accurate modeling of tightly-coupled architectures like GPUs. ACALSim’s synchronous execution model better matches the lock-step nature of GPU hardware, resulting in simpler, more maintainable simulation code. 

3.6 Simulation Performance Comparison 

Evaluation Platform. All experiments were conducted on an Apple M2 Max (12 cores, 32GB RAM) running macOS 14, compiled with Apple Clang 15 (-O3). ACALSim used 8 worker threads (default configuration). SST version 14.0.0 was configured for single-rank execution; SST’s parallelism model targets multi-rank MPI distribution rather than intra-rank threading. We used SST’s default clock management (all components tick every cycle); selective clock unregistration would require per-component modifications not present in baseline SST element libraries, whereas ACALSim provides fast-forward transparently at the framework level. To quantify ACALSim’s performance advantages, we benchmarked both implementations across GEMM workloads of varying sizes and LLM inference layers. Both implementations use identical shared cores (L2CacheCore, HBMControllerCore, GlobalNoCCore, SharedTimingModel) ensuring the comparison isolates framework overhead from modeling differences. Table 4 summarizes the results. 

Performance Analysis. The results reveal a critical scaling divergence between the two frame-works: 

Small Workloads (16 TBs): SST is 5.8 × faster due to lower framework initialization overhead. ACALSim’s thread pool creation and SimPort buffer allocation incur a fixed ∼0.5s startup cost,  

> Proc. ACM Meas. Anal. Comput. Syst., Vol. 10, No. 2, Article 28. Publication date: June 2026. 28:12 Wei-Fen Lin et al.

Table 4. Performance Comparison: ACALSim vs SST                                  

> Workload TBs ACALSim SST Speedup
> GEMM 64 316 0.64s 0.11s 0.17 ×
> GEMM 256 364 1.68s 24s 14.3 ×
> GEMM 512 3256 9.03s T/O †—GEMM 1024 364 19.99s N/A ‡—GEMM 4096 3512 24.3min N/A ‡—LLaMA-7B Layer 860 17.7min N/A ‡—LLaMA-13B Layer 1,076 30.4min N/A ‡—
> †T/O: SST exceeded 102min timeout; ‡Not attempted due to pro-hibitive runtime. Simulated cycles: GEMM 64 3: 4.9K, GEMM 256 3:6K, GEMM 512 3: 18K, GEMM 1024 3: 28K, GEMM 4096 3: 666K, LLaMA-7B: 1.4M, LLaMA-13B: 2.2M.

which dominates for workloads completing in under 1 second. This overhead is amortized for larger workloads; the crossover point occurs around 32 TBs. 

Medium Workloads (64 TBs): ACALSim achieves 14.3 × speedup. As workload complexity increases, SST’s per-cycle overhead dominates: each of the ∼6,000 simulated cycles requires ticking all 170+ components (108 SMs, 32 L2 partitions, 10 HBM controllers, 7 GPCs, NoC, arbiters). 

Large Workloads (256+ TBs): SST becomes impractical. For GEMM 512 3 (256 TBs), SST ran for over 102 minutes without completing, while ACALSim finished in 9 seconds. This demonstrates that SST’s cycle-accurate overhead grows super-linearly with workload size, making it unsuitable for realistic GPU simulation workloads. Several architectural differences explain ACALSim’s superior scalability: (1) Event-Driven Fast-Forward : ACALSim’s getFastForwardCycles() skips idle cycles en-tirely by jumping to the next scheduled event. SST’s cycle-accurate model invokes tick() 

handlers on every registered component every cycle, even when no work is pending. For GPU workloads with 90%+ idle cycles (waiting for memory), this overhead is catastrophic. (2) Multi-threaded Phase 1 Execution : ACALSim’s Phase 1 executes component step() 

methods in parallel across worker threads. SST’s core simulation loop is single-threaded, serializing all 170+ component ticks per cycle. (3) Direct Method Invocation : ACALSim components communicate via direct C++ method calls through SimPort connections. SST routes events through a generic dispatch mechanism, adding indirection overhead per packet. (4) Reduced Event Overhead : ACALSim’s unified SimPacket type avoids per-event serializa-tion. SST requires each event class to implement serialize_order() for potential distributed simulation, adding allocation and copy overhead even in single-node configurations. 

Scalability. As workload complexity increases, ACALSim’s advantages compound. For LLM inference workloads involving thousands of thread blocks and millions of memory transactions, the cumulative overhead of SST’s event handling becomes significant. ACALSim’s streamlined execution path maintains consistent simulation throughput regardless of workload scale. 

Memory Footprint. For the same 108-SM A100 configuration, ACALSim uses 41% less memory than SST (25.3 MB vs. 43 MB peak RSS). This stems from: (1) RecycleContainer ’s O(1) pooled allocation vs. SST’s per-event new /delete ; (2) SimPort double-buffering reusing fixed-size buffers; and (3) unified SimPacket avoiding per-event-class serialization overhead required by SST even in single-node configurations.  

> Proc. ACM Meas. Anal. Comput. Syst., Vol. 10, No. 2, Article 28. Publication date: June 2026. ACALSim: A Scalable Parallel Simulation Framework for High-Performance System Design Space Exploration 28:13

Fig. 4. Hybrid ACALSim-SST architecture for multi-GPU simulation. 

3.7 Timing Accuracy Validation 

To validate that HPCSim’s timing model produces meaningful results, we compare simulated cycle counts against hardware measurements from NVIDIA Nsight Compute (NCU) on an A100 GPU. Table 5 presents the correlation for GEMM kernels across problem sizes. 

Table 5. Timing Accuracy: HPCSim vs. A100 Hardware (NCU)                         

> Size TBs NCU Cycles Sim Cycles Ratio
> 64 316 5,632 4,451 0.79 ×
> 256 364 7,446 5,395 0.72 ×
> 512 364 10,009 7,770 0.78 ×
> 1024 364 25,378 23,413 0.92 ×
> 2048 3256 131,884 161,241 1.22 ×

The results demonstrate that HPCSim achieves 0.72–1.22 × correlation with real hardware, with an average deviation of approximately 20%. 

Workload diversity analysis. The GEMM sweep covers the compute-memory spectrum: small GEMMs (64 3–256 3) are memory-latency-bound (under-prediction 0.72–0.79 × from conservative memory modeling), medium GEMMs (512 3–1024 3) are compute-bound (best accuracy 0.78–0.92 ×), and large GEMMs (2048 3) are bandwidth-bound (over-prediction 1.22 × from idealized L2 under  

> Proc. ACM Meas. Anal. Comput. Syst., Vol. 10, No. 2, Article 28. Publication date: June 2026. 28:14 Wei-Fen Lin et al.
> Fig. 5. Multi-rank scalable deployment with 2 SST ranks coordinating 4 GPUs.

contention). The LLaMA layers in Table 4 are mixed workloads spanning GEMM, softmax, layer norm, and residual addition. These results confirm that HPCSim provides sufficient fidelity for architecture exploration and design space studies, where relative performance trends matter more than absolute cycle counts. 

Summary. ACALSim demonstrates clear advantages for GPU simulation: 

• Performance : Over 14 × faster wall-clock time on medium-scale workloads (64 TBs) 

• Timing Accuracy : 0.72–1.22 × correlation with A100 hardware measurements ( ∼20% average error) 

• Single-Node Scalability : Efficiently scales to 100–1000+ tightly-coupled components within a single node—unlike SST, which focuses on multi-node MPI scalability 

• Memory Efficiency : 41% lower memory footprint than SST for the same configuration 

• Programming Model : Single-threaded programming with transparent parallelism—no locks, barriers, or concurrency primitives required While SST offers ecosystem benefits including standardized interfaces and multi-framework interoperability, ACALSim’s purpose-built design delivers the performance and flexibility required for productive GPU architecture research. The hybrid architecture presented in Section 4 demon-strates that these approaches can be complementary, leveraging ACALSim for cycle-accurate device simulation while using SST for system-level orchestration.  

> Proc. ACM Meas. Anal. Comput. Syst., Vol. 10, No. 2, Article 28. Publication date: June 2026. ACALSim: A Scalable Parallel Simulation Framework for High-Performance System Design Space Exploration 28:15

4 Best Practice: Hybrid ACALSim-SST Multi-Device Architecture 

While ACALSim excels at single-device cycle-accurate simulation, modern LLM inference requires multi-GPU coordination. We developed a hybrid architecture that leverages ACALSim’s simu-lation fidelity for individual GPUs while using SST’s event-driven framework for inter-device orchestration. 

Design Rationale. ACALSim employs a shared-memory programming model where each simulator process models exactly one GPU device. This design enables efficient intra-device com-munication but precludes direct memory sharing between multiple GPU instances. For NVLink communication between devices, packets must be routed externally. SST’s component-based archi-tecture provides a natural solution: each GPU runs as an independent ACALSim process, while SST components manage inter-device NVLink routing and global job scheduling. 

Dual-Port TCP Architecture. Each A100 simulator instance exposes two TCP ports to the SST orchestration layer: 

• Job Port (e.g., 9100, 9101): Low-volume, latency-sensitive job control traffic including job submission, completion notifications, and synchronization signals. 

• NVLink Port (e.g., 9200, 9201): High-volume, bandwidth-intensive memory transfer packets for GPU-to-GPU communication such as tensor sharding and KV cache migration. This separation prevents NVLink data traffic from blocking time-critical job control messages, ensuring responsive scheduling even under heavy inter-device communication loads. 

SST Integration Components. The hybrid architecture introduces three SST components that bridge ACALSim instances: (1) GPUDeviceComponent : Wraps each ACALSim A100 process, managing TCP connections via 

HPCSimWrapper (job port) and NVLinkWrapper (NVLink port). (2) HostSchedulerComponent : Provides the external workload interface, distributing inference requests across devices based on load balancing or tensor parallelism policies. (3) SST::Link for NVLink: Models inter-GPU NVLink topology (e.g., NVSwitch full-mesh or direct peer-to-peer), routing packets between GPUDeviceComponent instances with config-urable latency and bandwidth. 

Benefits of the Hybrid Approach. This architecture preserves ACALSim’s advantages for intra-device simulation while enabling scalable multi-device modeling: 

• Preserved Fidelity : Each GPU maintains cycle-accurate two-phase execution with native backpressure modeling. 

• Process Isolation : Independent A100 processes enable parallel simulation and fault isolation. 

• Flexible Topology : SST Link configuration allows modeling various NVLink topologies without modifying ACALSim code. 

• Scalability : Adding GPUs requires only spawning additional A100 processes and configuring SST components. 

Multi-Rank Scalability. The architecture extends to multi-rank MPI deployments (Fig. 5): each SST rank manages 4–8 GPUs with local NVLink mesh, while an external coordinator distributes workload via TCP. A 32-GPU deployment across 4 ranks achieved 31.8 × throughput with <5% 

coordinator overhead, supporting tensor/pipeline parallelism and disaggregated inference without modifying ACALSim code. This hybrid design demonstrates that ACALSim’s synchronous execution model can be effectively composed with event-driven frameworks for system-level simulation, combining the strengths of both paradigms.  

> Proc. ACM Meas. Anal. Comput. Syst., Vol. 10, No. 2, Article 28. Publication date: June 2026. 28:16 Wei-Fen Lin et al.

Table 6. NVSim Hardware and Kernel Configuration             

> Kernel Config H100 Hardware
> TILE_M/N Tile dimensions SM Count 132 N_BUFFERS Pipeline buffers Max Blocks/SM 32 Shared Mem/SM 228 KB
> Workload L2 Cache 50 MB GEMM 1500 ×3072 ×8192 FP16 Shared/Block 227 KB

5 Generalizability: Diverse Simulators and Workload Patterns 

We demonstrate ACALSim’s generalizability along two dimensions: architectural diversity and simu-lation pattern diversity . Four simulators have been built on ACALSim by independent teams: HPCSim (A100, 170+ components, ∼18K LoC), HPCSim-H100 (190+ components, ∼9K LoC), DGXSim (8-GPU system, 1,066 components, ∼5K LoC), and BlackBear (custom 64-PE AI accelerator with 3-level hier-archical NoC and software-managed SRAM, 200+ components, ∼10K LoC). These share no timing models—only framework infrastructure. BlackBear demonstrates that ACALSim is not GPU-specific: its arbiter-tree NoC, distributed SRAM tiers, and custom DMA engines are architecturally distinct from GPU SMs, yet the same SimBase /SimPort /ThreadManager APIs apply without modification. ACALSim targets tightly-coupled single-node systems where hundreds of components interact every few cycles; for loosely-coupled distributed systems, SST or ROSS are more appropriate, and the hybrid integration (Section 4) bridges these regimes. 

Simulation pattern diversity. Beyond architectural generalizability, different simulators exhibit distinct performance patterns that require different thread management strategies. We present NVSim 3, an analytical model suite developed based on ACALSim to model HPC system architecture used in academia for teaching, to explore how varying simulation patterns affect throughput and scalability. Figure 6 depicts the top-level block diagram of NVSim which incorporates key architectural features including tensor cores, shared memory hierarchy, and NVLink interconnect topology with configuration listed in Table 6 while abstracting complex GPU architectural details. The model preserves essential performance-impacting characteristics such as memory bandwidth constraints, interconnect latency, and compute unit utilization described in publicly available Hopper Benchmarking results[ 17 ] and NVIDIA’s documentation specifications[ 22 ][ 12 ][ 8]. We demonstrate the framework’s adaptability through two contrasting simulation scenarios from students’ projects: (1) DGXSim : A system-level configuration modeling 8 GPU devices in a DGX system with simplified memory subsystems, designed to study collective communication algorithms across the interconnect fabric. (2) NVSim : A detailed device-level configuration focusing on a single GPU with comprehensive memory subsystem modeling, enabling fine-grained software tiling optimization for down-projection GEMM layer inference. DGXSim and GPUSim use 1066 and 159 SimBase simulators, respectively, to model a single down-projection layer from the Llama 3.2 3B model processing 1500 input tokens. Figures 7 and 8 illustrate CPU utilization over time and total execution time across varying numbers of hardware threads with different thread manager implementations. The distinct simulation patterns exhibited by DGXSim and GPUSim result in markedly different performance characteristics and scaling behaviors. Figure 7 presents weak scalability experiments, where the problem size increases proportionally with computational resources, while Figure 8 demonstrates strong scalability experiments, where a fixed  

> 3NVSim, DGXSim, and GPUSim are independent simulators developed by coauthors using early versions of ACALSim; their public availability is subject to the discretion of their respective developers. Proc. ACM Meas. Anal. Comput. Syst., Vol. 10, No. 2, Article 28. Publication date: June 2026. ACALSim: A Scalable Parallel Simulation Framework for High-Performance System Design Space Exploration 28:17

Fig. 6. NVSim Simulation Suite Block Diagram 

Fig. 7. DGXSim: CPU Utilization and Performance Scaling 

problem size is distributed across increasing computational resources. We have observed three simulation patterns commonly seen in the HPC system simulation: (1) Sparse Activation in Large-Scale Simulation : In scenarios involving a large number of sim-ulators ( 𝑁 ≫ 100 ), it is common for only a small subset of simulators to be active during each iteration, as shown in Figure 9. Traditional thread management in such cases leads to significant resource underutilization. This inefficiency can be mitigated by tracking and executing only the active simulators. (2) Heterogeneous Workload Distribution : When some simulators execute detailed timing simula-tions while others use lightweight analytical models, the resulting workload becomes highly imbalanced. We observed this pattern through the non-uniform scheduling idle times across hardware threads, as captured by the profiling tool described in the next section. (3) Memory-Intensive Simulation : While increasing the number of threads generally improves computational throughput, doing so in memory-intensive simulations can paradoxically degrade performance. Traditional just-in-time (JIT) and cycle-accurate simulation techniques consume significant memory resources to maintain detailed state information, inherently  

> Proc. ACM Meas. Anal. Comput. Syst., Vol. 10, No. 2, Article 28. Publication date: June 2026. 28:18 Wei-Fen Lin et al.
> Fig. 8. GPUSim: CPU Utilization and Performance Scaling
> Fig. 9. GPUSim Parallelism Degree Per Iteration

leading to memory-intensive behavior [ 3]. Compared to DGXSim, GPUSim models a more detailed memory subsystem which incurs high-frequency event and packet simulations. It generates a memory-bound workload in a multi-threaded environment as shown in Figures 8 and 9. The CPU utilization remains below 250% even though, on average, approximately 30+ out of 159 simulators are ready to run in parallel. In such cases, memory contention and cache interference may offset the expected benefits of parallel processing. Each pattern requires careful consideration of resource allocation, scheduling priorities among all simulators in thread assignment, and how to enhance data locality. ACALSim’s flexible 

ThreadManager interface enables developers to implement these specialized strategies while maintaining a consistent simulation control interface, allowing for pattern-specific optimizations that significantly improve simulation performance. 

5.1 Simulation Performance Enhancement Via Thread Manager Specialization 

Traditional simulation frameworks rely on fixed thread management policies that may not suit all workload patterns. ACALSim allows developers to implement custom ThreadManager strategies for specific simulation characteristics. Coauthors have developed ThreadManagerV1 through V8 

for different projects, each targeting different patterns. Integrated profiling tools guide these optimization efforts. 

Why pluggable thread management matters. The contribution is the pluggable interface , not any single scheduling algorithm. No existing framework—SST, gem5, GPGPU-Sim, SystemC, ZSim, or ROSS—exposes thread scheduling as a user-extensible API. This matters because no single ThreadManager is universally best : V1 (priority-ordered) outperforms V3 for DGXSim’s sparse activation pattern (1.4 × speedup, 8 threads), while V3 (work-stealing) outperforms V1 for GPUSim’s    

> Proc. ACM Meas. Anal. Comput. Syst., Vol. 10, No. 2, Article 28. Publication date: June 2026. ACALSim: A Scalable Parallel Simulation Framework for High-Performance System Design Space Exploration 28:19
> (a) Execution Time (b) Phase 1 Breakdown
> (c) Phase 2 Breakdown (d) Scheduling Overhead

Fig. 10. Simulation Profiling Results 

memory-intensive pattern. V6 (thread-local queues) eliminates lock contention, providing the best scaling at high thread counts (Figure 10d). Figures 7 and 8 isolate this effect by running identical workloads with different ThreadManager implementations. 

5.2 Simulation-Pattern-Driven Optimization 

ThreadManagerV1 targets sparse activation patterns in co-simulation environments. It maintains tasks ordered by predicted next execution time, ensuring only simulators with pending operations are scheduled. The design uses atomic variables and condition variables to minimize synchronization overhead, with an UpdateablePriorityQueue supporting O(log n) priority updates. Key design decisions in ThreadManagerV1 :

• Lazy Evaluation : Tasks execute only when pending operations exist, reducing unnecessary context switches. 

• Dynamic Priority Updates : O(log n) priority updates when communication events arrive. 

• Lock-Free Operations : Atomic operations minimize contention on critical paths. Figures 7 and 8 show that ThreadManagerV1 performs well for DGXSim workloads, while 

ThreadManagerV3 achieves better performance for GPUSim workloads—demonstrating the value of workload-specific ThreadManager selection. 

5.3 Simulation Workload Characteristics Profiling 

Simulation performance strongly depends on the underlying characteristics of the simulator. ACAL-Sim is engineered to enhance performance for simulators exhibiting high parallelism, aligning with modern computing systems. For simulators built on ACALSim, our integrated profiling tool provides analysis in multiple dimensions: it analyzes available parallelism and calculates potential speedup through multi-threaded execution, establishing a theoretical performance ceiling based on  

> Proc. ACM Meas. Anal. Comput. Syst., Vol. 10, No. 2, Article 28. Publication date: June 2026. 28:20 Wei-Fen Lin et al.
> Fig. 11. TaskManager Scheduling Overhead Comparison

inherent parallelism. The tool performs detailed performance gap analysis to help users understand discrepancies between measured and theoretical performance, identifying bottlenecks, synchro-nization overhead, and resource contention. For users seeking to enhance the theoretical upper bound, the profiling tool identifies structural limitations in simulator design that restrict potential parallelism, offering suggestions for restructuring components to increase parallelism. Figure 10(a) illustrates execution time as hardware thread count increases. Phase 1 (parallel computation) demonstrates expected scaling, while Phase 2 (serialized computation) maintains consistent overhead regardless of thread count. This highlights a fundamental constraint: simulators with low parallel-to-serial ratios experience limited speedup potential. Figures 10(b) and 10(c) break down Phase 1 and Phase 2 execution time, revealing potential scaling bottlenecks in user code or within the framework design. Figure 10(d) dissects scheduling overheads, enabling targeted optimization efforts. 

5.4 Profiling-Driven Optimization 

Based on the profiling results in Figure 10, we found that the scheduling overhead in the 

ThreadManagerV1 design is significantly higher than in the other two thread managers. This led us to address the lock contention issues that emerged as a major source of scheduling overhead during parallel execution. Our optimization, implemented in ThreadManagerV6 , features thread-local task queues for handling expired tasks within each iteration. This approach trades minimal thread-local task queue setup overhead for the elimination of lock contention during scheduling. By localizing task management, we minimize lock contention that would otherwise increase proportionally with hardware thread count. Figure 11 demonstrates the effectiveness of the ThreadManagerV6 

implementation. Figure 10(d) illustrates how the tradeoff is made, turning the blue overheads in V1 into much smaller purple overheads in V6. The execution time comparison in Figures 7 and 8 clearly shows how the local task queue optimization reduces scheduling overhead and improves scalability as thread count increases. In summary, providing developers with flexible performance tuning mechanisms is critical when simulation workload characteristics are not fully predictable or well-understood. The optimization example in this section showcases how our profiling tool effectively guides the identification of optimization opportunities, enabling us to elevate simulation performance to the next level.  

> Proc. ACM Meas. Anal. Comput. Syst., Vol. 10, No. 2, Article 28. Publication date: June 2026. ACALSim: A Scalable Parallel Simulation Framework for High-Performance System Design Space Exploration 28:21

6 RELATED WORK 

Simulation frameworks have evolved to address the growing complexity of modern computing archi-tectures. General-purpose frameworks like gem5[ 21 ] and SystemC[ 23 ] provide modular platforms for computer system simulation. Manifold[ 29 ] introduces component-based multicore simulation with parallel kernels. MosaicSim[ 19 ] leverages LLVM for heterogeneous system simulation. SST[ 25 ]and ZSim[27] focus on parallel discrete event simulation for specific domains. 

GPU Simulators. Accel-Sim [ 14 ] extends GPGPU-Sim with trace-driven simulation and im-proved hardware correlation, but remains largely single-threaded. MGPUSim provides Go-based GPU simulation with some parallelism but targets different fidelity levels. Multi2Sim focuses on CPU-GPU heterogentic systems. 

PDES Engines. ROSS [ 4 ] provides optimistic parallel discrete event simulation with rollback support, well-suited for loosely-coupled distributed systems. However, optimistic PDES becomes prohibitively expensive for tightly-coupled GPU architectures: a single memory request from one SM can fan out to multiple L2 partitions, HBM controllers, and NoC routers, each maintaining state that must be checkpointed and potentially rolled back. With 108 SMs issuing thousands of concurrent requests through shared crossbar interconnects, the rollback cascade from a single timing violation would require restoring state across dozens of components—overwhelming any parallelism gains. ZSim [ 27 ] achieves impressive CPU simulation parallelism through its bound-weave synchro-nization model, which exploits the observation that CPU cores with private L1/L2 caches interact infrequently through coherence traffic. The “bound” phase simulates cores independently up to a synchronization quantum, while the “weave” phase resolves inter-core interactions. This model assumes spatial locality of memory accesses and rare cross-core communication—assumptions that fundamentally break down for GPU architectures. In contrast to CPUs, GPU SMs share L2 cache partitions accessed every few cycles, contend for HBM bandwidth through centralized controllers, and synchronize through global barriers. The communication-to-computation ratio is orders of magnitude higher, making bound-weave’s loose synchronization unsuitable. ACALSim addresses these challenges through deterministic two-phase execution: Phase 1 exe-cutes all components in parallel with reads from current state and writes to next-state buffers, while Phase 2 atomically commits all state changes. This eliminates rollback entirely while preserving cycle-accurate semantics for tightly-coupled architectures. Simics uses cooperative scheduling with priority inheritance but does not expose thread management as a user-extensible API. 

System-Level Frameworks. As simulation needs grow more diverse, a key challenge re-mains: developing a unified, efficient, and flexible framework for heterogeneous systems. Existing system-level simulation frameworks are primarily developed to estimate the end-to-end latency of workloads under various parallelization strategies and network topologies. For example, ASTRA-sim2.0 [ 30 ] integrates data, tensor, and pipeline parallelism with modern communication strategies to model large-scale training. However, these frameworks, including Neusight [ 16 ] (which achieves a low error rate in latency prediction with short simulation time), often struggle to evaluate the latency when multiple models run simultaneously and lack extensibility, hindering the addition of custom scheduling or execution policies. GPGPU-Sim [ 1] offers cycle-accurate GPU simulation but is too slow for large-scale DSE. NVArchSim [ 28 ] improves speed via trace replay, but lacks flexibility due to its retry-based, fixed-control execution. Loop-centric tools like MAESTRO [ 15 ], SCALE-Sim [ 26 ], Timeloop [ 24 ], and ZigZag [ 20 ] are less suitable for dynamic models like Trans-formers. Z. Guo et al. [ 10 ] categorize existing modeling methods into analytical, graph-based, and execution-driven approaches, each with trade-offs between fidelity and extensibility.  

> Proc. ACM Meas. Anal. Comput. Syst., Vol. 10, No. 2, Article 28. Publication date: June 2026. 28:22 Wei-Fen Lin et al.

AI-Focused Simulation. Recent advancements in AI-focused simulation have introduced tools like vTrain [ 2 ] and ONNXim [ 11 ]. vTrain employs a profiling-driven approach to optimize large-scale LLM training configurations, while ONNXim achieves significant speedups for multi-core NPUs by assuming deterministic compute latencies for systolic arrays. However, these frameworks often target specific application domains (e.g., training cost optimization or NPU inference) and impose fixed threading or abstraction models. In contrast, ACALSim provides a general-purpose, high-performance infrastructure with a pluggable thread management architecture. This allows architects to optimize simulation performance across a broader range of hardware patterns—from tightly-coupled GPU SMs to disaggregated multi-device systems—without sacrificing the cycle-level fidelity required for comprehensive design space exploration. Critically, none of the above frameworks provide user-extensible thread management —they impose fixed threading models that users cannot customize for their specific workload patterns. ACALSim’s pluggable ThreadManager architecture addresses this gap, enabling simulation-pattern-driven optimization that delivers order-of-magnitude performance improvements for specific workload classes. 

7 CONCLUSIONS AND FUTURE WORK 

This paper presents ACALSim, a high-performance multi-threaded simulation framework that addresses critical infrastructure challenges in modern AI accelerator design space exploration. Unlike existing frameworks that provide fixed threading models, ACALSim’s primary contribution is a pluggable thread management architecture that enables developers to implement custom scheduling strategies optimized for their specific simulation patterns—a capability absent in SST, gem5, and other established frameworks. This simulation-pattern-driven customization, combined with event-driven fast-forward execution, two-phase deterministic parallelism, and shared-memory communication, delivers over 14 × speedup compared to SST while using 41% less memory. As a framework contribution, ACALSim provides infrastructure and APIs rather than prescriptive timing models—accuracy is the responsibility of simulator developers building on the framework. The HPCSim case study demonstrates that this approach enables productive GPU architecture research: hardware validation confirms 0.72–1.22 × cycle count correlation with A100 measurements, while simulating full LLaMA transformer layers in 17.7 minutes for LLaMA-7B and 30.4 minutes for LLaMA-13B—workloads where SST times out on much smaller configurations. Integrated profiling tools help users understand simulation behavior and guide ThreadManager customization for their specific use cases. Future work will focus on expanding the ThreadManager ecosystem with additional simulation-pattern-driven implementations, improving cross-simulator data locality, and enhancing the hybrid ACALSim-SST integration for larger-scale multi-device simulations. 

Acknowledgments 

This work was supported in part by the Industrial Technology Research Institute (ITRI), Taiwan. We gratefully acknowledge ITRI’s financial support for the ACALSim open-source project. 

References     

> [1] A. Bakhoda, G. L. Yuan, W. W. L. Fung, H. Wong, and T. M. Aamodt. 2009. Analyzing CUDA workloads using a detailed GPU simulator. In 2009 IEEE International Symposium on Performance Analysis of Systems and Software . 163–174. doi:10.1109/ISPASS.2009.4919648 [2] J. Bang, Y. Choi, M. Kim, Y. Kim, and M. Rhu. 2024. vTrain: A Simulation Framework for Evaluating Cost-Effective and Compute-Optimal Large Language Model Training. In 2024 57th IEEE/ACM International Symposium on Microarchitecture (MICRO) . 153–167. doi:10.1109/MICRO61859.2024.00021 Proc. ACM Meas. Anal. Comput. Syst., Vol. 10, No. 2, Article 28. Publication date: June 2026.

ACALSim: A Scalable Parallel Simulation Framework for High-Performance System Design Space Exploration 28:23 

[3] I. Böhm, B. Franke, and N. Topham. 2010. Cycle-accurate performance modelling in an ultra-fast just-in-time dy-namic binary translation instruction set simulator. In 2010 International Conference on Embedded Computer Systems: Architectures, Modeling and Simulation . 1–10. doi:10.1109/ICSAMOS.2010.5642102 [4] Christopher D. Carothers, David Bauer, and Shawn Pearce. 2002. ROSS: A high-performance, low-memory, modular Time Warp system. J. Parallel and Distrib. Comput. 62, 11 (2002), 1648–1669. doi:10.1016/S0743-7315(02 )00004-7 [5] V. Catania, A. Mineo, S. Monteleone, M. Palesi, and D. Patti. 2015. Noxim: An open, extensible and cycle-accurate network on chip simulator. In 2015 IEEE 26th International Conference on Application-specific Systems, Architectures and Processors (ASAP) . 162–163. doi:10.1109/ASAP.2015.7245728 [6] S. P. Chenna, M. Steyer, N. Kumar, M. Garzaran, and P. Thierry. 2024. Modeling and Simulation of Collective Algorithms on HPC Network Topologies using Structural Simulation Toolkit. In SC24-W: Workshops of the International Conference for High Performance Computing, Networking, Storage and Analysis . 909–916. doi:10.1109/SCW63240.2024.00129 [7] J. Cho, M. Kim, H. Choi, G. Heo, and J. Park. 2024. LLMServingSim: A HW/SW Co-Simulation Infrastructure for LLM Inference Serving at Scale. In 2024 IEEE International Symposium on Workload Characterization (IISWC) . 15–29. doi:10.1109/IISWC63097.2024.00012 [8] J. Choquette. 2023. NVIDIA Hopper H100 GPU: Scaling Performance. IEEE Micro 43, 3 (2023), 9–17. doi:10.1109/MM. 2023.3256796 [9] Firoozshahian et al . 2023. MTIA: First Generation Silicon Targeting Meta’s Recommendation Systems. In Proceedings of the 50th Annual International Symposium on Computer Architecture (ISCA ’23) . ACM, Article 80, 13 pages. doi:10. 1145/3579371.3589348 [10] Z. Guo et al . 2024. A Survey on Performance Modeling and Prediction for Distributed DNN Training. IEEE Transactions on Parallel and Distributed Systems 35, 12 (2024), 2463–2478. doi:10.1109/TPDS.2024.3476390 [11] H. Ham et al . 2024. ONNXim: A Fast, Cycle-Level Multi-Core NPU Simulator. IEEE Computer Architecture Letters 23, 2 (2024), 219–222. doi:10.1109/LCA.2024.3484648 [12] A. Ishii et al. 2018. NVSwitch and DGX-2: NVLink-Switching chip and scale-up compute server. In Hot Chips 30 .[13] S. Karandikar et al . 2018. FireSim: FPGA-Accelerated Cycle-Exact Scale-Out System Simulation in the Public Cloud. In 

2018 ACM/IEEE 45th Annual International Symposium on Computer Architecture (ISCA) . 29–42. doi:10.1109/ISCA.2018. 00014 [14] M. Khairy, Z. Shen, T. M. Aamodt, and T. G. Rogers. 2020. Accel-sim: An extensible simulation framework for validated GPU modeling. In Proc. ACM/IEEE 47th Annu. Int. Symp. Comput. Archit. 473–486. [15] H. Kwon, P. Chatarasi, V. Sarkar, T. Krishna, M. Pellauer, and A. Parashar. 2020. MAESTRO: A Data-Centric Approach to Understand Reuse, Performance, and Hardware Cost of DNN Mappings. IEEE Micro 40, 3 (2020), 20–29. doi:10.1109/ MM.2020.2985963 [16] S. Lee, A. Phanishayee, and D. Mahajan. 2025. Forecasting GPU Performance for Deep Learning Training and Inference. In Proc. 30th ACM Int. Conf. on Architectural Support for Programming Languages and Operating Systems (ASPLOS ’25) ,Vol. 1. 493–508. doi:10.1145/3669940.3707265 [17] W. Luo et al . 2024. Benchmarking and Dissecting the Nvidia Hopper GPU Architecture. In 2024 IEEE International Parallel and Distributed Processing Symposium (IPDPS) . 656–667. doi:10.1109/IPDPS57955.2024.00064 [18] P. S. Magnusson et al . 2002. Simics: A full system simulation platform. Computer 35, 2 (2002), 50–58. doi:10.1109/2.982916 [19] O. Matthews et al . 2020. MosaicSim: A Lightweight, Modular Simulator for Heterogeneous Systems. In 2020 IEEE International Symposium on Performance Analysis of Systems and Software (ISPASS) . 136–148. doi:10.1109/ISPASS48437. 2020.00029 [20] L. Mei, P. Houshmand, V. Jain, S. Giraldo, and M. Verhelst. 2021. ZigZag: Enlarging Joint Architecture-Mapping Design Space Exploration for DNN Accelerators. IEEE Trans. Comput. 70, 8 (2021), 1160–1174. doi:10.1109/TC.2021.3059962 [21] Christian Menard, Jerónimo Castrillón, Matthias Jung, and Norbert Wehn. 2017. System simulation with gem5 and SystemC: The keystone for full interoperability. In 2017 International Conference on Embedded Computer Systems: Architectures, Modeling, and Simulation (SAMOS) . 62–69. doi:10.1109/SAMOS.2017.8344612 [22] NVIDIA. 2024. NVIDIA DGX H100/H200 User Guide. https://docs.nvidia.com/dgx/dgxh100-user-guide/dgxh100-user-guide.pdf. [23] Preeti Ranjan Panda. 2001. SystemC: a modeling platform supporting multiple design abstractions. In Proceedings of the 14th international symposium on Systems synthesis (ISSS ’01) . ACM, 75–80. doi:10.1145/500001.500018 [24] A. Parashar et al . 2019. Timeloop: A Systematic Approach to DNN Accelerator Evaluation. In 2019 IEEE International Symposium on Performance Analysis of Systems and Software (ISPASS) . 304–315. doi:10.1109/ISPASS.2019.00042 [25] A. F. Rodrigues, K. S. Hemmert, B. W. Barrett, C. Kersey, R. Oldfield, M. Weston, R. Risen, J. Cook, P. Rosenfeld, E. Cooper-Balis, and B. Jacob. 2011. The structural simulation toolkit. SIGMETRICS Perform. Eval. Rev. 38, 4 (2011), 37–42. doi:10.1145/1964218.1964225 [26] A. Samajdar, J. M. Joseph, Y. Zhu, P. Whatmough, M. Mattina, and T. Krishna. 2020. A Systematic Methodology for Characterizing Scalability of DNN Accelerators using SCALE-Sim. In 2020 IEEE International Symposium on Performance 

Proc. ACM Meas. Anal. Comput. Syst., Vol. 10, No. 2, Article 28. Publication date: June 2026. 28:24 Wei-Fen Lin et al. 

Analysis of Systems and Software (ISPASS) . 58–68. doi:10.1109/ISPASS48437.2020.00016 [27] Daniel Sanchez and Christos Kozyrakis. 2013. ZSim: fast and accurate microarchitectural simulation of thousand-core systems. In Proceedings of the 40th Annual International Symposium on Computer Architecture (ISCA ’13) . ACM, 475–486. doi:10.1145/2485922.2485963 [28] O. Villa et al . 2021. Need for Speed: Experiences Building a Trustworthy System-Level GPU Simulator. In 2021 IEEE International Symposium on High-Performance Computer Architecture (HPCA) . 868–880. doi:10.1109/HPCA51647.2021. 00077 [29] J. Wang et al . 2014. Manifold: A parallel simulation framework for multicore systems. In 2014 IEEE International Symposium on Performance Analysis of Systems and Software (ISPASS) . 106–115. doi:10.1109/ISPASS.2014.6844466 [30] W. Won, T. Heo, S. Rashidi, S. Sridharan, S. Srinivasan, and T. Krishna. 2023. ASTRA-sim2.0: Modeling Hierarchical Networks and Disaggregated Systems for Large-model Training at Scale. In 2023 IEEE International Symposium on Performance Analysis of Systems and Software (ISPASS) . 283–294. doi:10.1109/ISPASS57527.2023.00035 [31] Tse-Chen Yeh, Zin-Yuan Lin, and Ming-Chao Chiang. 2011. Enabling TLM-2.0 interface on QEMU and SystemC-based virtual platform. In 2011 IEEE International Conference on IC Design & Technology . doi:10.1109/ICICDT.2011.5783207 

Received January 2026; revised March 2026; accepted April 2026 

Proc. ACM Meas. Anal. Comput. Syst., Vol. 10, No. 2, Article 28. Publication date: June 2026.